Circuit: * C:\Repositories\Silent-Split-Supply\Split Supply Single Buck Coupled Inductor.asc

Per .tran options, skipping operating point for transient analysis.
Ignoring empty pin current: Ix(u1:5)
Ignoring empty pin current: Ix(u1:7)
Ignoring empty pin current: Ix(u1:9)
Ignoring empty pin current: Ix(u1:11)
Ignoring empty pin current: Ix(u1:12)

Date: Thu Feb 28 20:44:12 2019
Total elapsed time: 35.024 seconds.

tnom = 27
temp = 27
method = modified trap
totiter = 2465784
traniter = 2465784
tranpoints = 691074
accept = 515179
rejected = 175895
matrix size = 75
fillins = 5
solver = Normal
Thread vector: 20.1/4.5[4] 5.4/3.2[4] 1.4/1.8[1] 0.6/1.0[1]  2592/500
Matrix Compiler1:     156 opcodes  1.0/[0.5]/0.5
Matrix Compiler2: off  [0.4]/0.8/0.5

