Circuit: * C:\Repositories\Silent-Split-Supply\Split Supply Single Buck Coupled Inductor v2.asc

Per .tran options, skipping operating point for transient analysis.
Ignoring empty pin current: Ix(u1:5)
Ignoring empty pin current: Ix(u1:7)
Ignoring empty pin current: Ix(u1:9)
Ignoring empty pin current: Ix(u1:11)
Ignoring empty pin current: Ix(u1:12)

Date: Sun Jan 27 13:25:40 2019
Total elapsed time: 15.019 seconds.

tnom = 27
temp = 27
method = modified trap
totiter = 1114160
traniter = 1114160
tranpoints = 344007
accept = 247187
rejected = 96820
matrix size = 75
fillins = 7
solver = Normal
Thread vector: 8.2/4.9[4] 4.5/3.3[4] 1.2/1.3[1] 0.2/1.0[1]  2592/500
Matrix Compiler1: 2.78 KB object code size  1.0/0.6/[0.4]
Matrix Compiler2: 4.60 KB object code size  0.4/0.9/[0.3]

